/*--------------------------------*- C++ -*----------------------------------*\
| =========                 |                                                 |
| \\      /  F ield         | OpenFOAM: The Open Source CFD Toolbox           |
|  \\    /   O peration     | Version:  2.4.0                                 |
|   \\  /    A nd           | Web:      www.OpenFOAM.org                      |
|    \\/     M anipulation  |                                                 |
\*---------------------------------------------------------------------------*/
FoamFile
{
    version     2.0;
    format      ascii;
    class       polyBoundaryMesh;
    location    "constant/polyMesh";
    object      boundary;
}
// * * * * * * * * * * * * * * * * * * * * * * * * * * * * * * * * * * * * * //

10
(
    inlet
    {
        type            patch;
        nFaces          0;
        startFace       82;
    }
    outlet
    {
        type            patch;
        nFaces          0;
        startFace       82;
    }
    bottom
    {
        type            wall;
        inGroups        1(wall);
        nFaces          20;
        startFace       82;
    }
    top
    {
        type            symmetryPlane;
        inGroups        1(symmetryPlane);
        nFaces          0;
        startFace       102;
    }
    side1
    {
        type            symmetryPlane;
        inGroups        1(symmetryPlane);
        nFaces          0;
        startFace       102;
    }
    side2
    {
        type            symmetryPlane;
        inGroups        1(symmetryPlane);
        nFaces          10;
        startFace       102;
    }
    procBoundary56to40
    {
        type            processor;
        inGroups        1(processor);
        nFaces          10;
        startFace       112;
        matchTolerance  0.0001;
        transform       unknown;
        myProcNo        56;
        neighbProcNo    40;
    }
    procBoundary56to55
    {
        type            processor;
        inGroups        1(processor);
        nFaces          8;
        startFace       122;
        matchTolerance  0.0001;
        transform       unknown;
        myProcNo        56;
        neighbProcNo    55;
    }
    procBoundary56to57
    {
        type            processor;
        inGroups        1(processor);
        nFaces          8;
        startFace       130;
        matchTolerance  0.0001;
        transform       unknown;
        myProcNo        56;
        neighbProcNo    57;
    }
    procBoundary56to120
    {
        type            processor;
        inGroups        1(processor);
        nFaces          20;
        startFace       138;
        matchTolerance  0.0001;
        transform       unknown;
        myProcNo        56;
        neighbProcNo    120;
    }
)

// ************************************************************************* //
