/*--------------------------------*- C++ -*----------------------------------*\
| =========                 |                                                 |
| \\      /  F ield         | OpenFOAM: The Open Source CFD Toolbox           |
|  \\    /   O peration     | Version:  2.4.0                                 |
|   \\  /    A nd           | Web:      www.OpenFOAM.org                      |
|    \\/     M anipulation  |                                                 |
\*---------------------------------------------------------------------------*/
FoamFile
{
    version     2.0;
    format      ascii;
    class       polyBoundaryMesh;
    location    "constant/polyMesh";
    object      boundary;
}
// * * * * * * * * * * * * * * * * * * * * * * * * * * * * * * * * * * * * * //

11
(
    inlet
    {
        type            patch;
        nFaces          0;
        startFace       133;
    }
    outlet
    {
        type            patch;
        nFaces          0;
        startFace       133;
    }
    bottom
    {
        type            wall;
        inGroups        1(wall);
        nFaces          20;
        startFace       133;
    }
    top
    {
        type            symmetryPlane;
        inGroups        1(symmetryPlane);
        nFaces          0;
        startFace       153;
    }
    side1
    {
        type            symmetryPlane;
        inGroups        1(symmetryPlane);
        nFaces          0;
        startFace       153;
    }
    side2
    {
        type            symmetryPlane;
        inGroups        1(symmetryPlane);
        nFaces          15;
        startFace       153;
    }
    procBoundary52to36
    {
        type            processor;
        inGroups        1(processor);
        nFaces          15;
        startFace       168;
        matchTolerance  0.0001;
        transform       unknown;
        myProcNo        52;
        neighbProcNo    36;
    }
    procBoundary52to51
    {
        type            processor;
        inGroups        1(processor);
        nFaces          12;
        startFace       183;
        matchTolerance  0.0001;
        transform       unknown;
        myProcNo        52;
        neighbProcNo    51;
    }
    procBoundary52to53
    {
        type            processor;
        inGroups        1(processor);
        nFaces          11;
        startFace       195;
        matchTolerance  0.0001;
        transform       unknown;
        myProcNo        52;
        neighbProcNo    53;
    }
    procBoundary52to116
    {
        type            processor;
        inGroups        1(processor);
        nFaces          20;
        startFace       206;
        matchTolerance  0.0001;
        transform       unknown;
        myProcNo        52;
        neighbProcNo    116;
    }
    procBoundary52to117
    {
        type            processor;
        inGroups        1(processor);
        nFaces          1;
        startFace       226;
        matchTolerance  0.0001;
        transform       unknown;
        myProcNo        52;
        neighbProcNo    117;
    }
)

// ************************************************************************* //
