/*--------------------------------*- C++ -*----------------------------------*\
| =========                 |                                                 |
| \\      /  F ield         | OpenFOAM: The Open Source CFD Toolbox           |
|  \\    /   O peration     | Version:  2.4.0                                 |
|   \\  /    A nd           | Web:      www.OpenFOAM.org                      |
|    \\/     M anipulation  |                                                 |
\*---------------------------------------------------------------------------*/
FoamFile
{
    version     2.0;
    format      ascii;
    class       polyBoundaryMesh;
    location    "constant/polyMesh";
    object      boundary;
}
// * * * * * * * * * * * * * * * * * * * * * * * * * * * * * * * * * * * * * //

11
(
    inlet
    {
        type            patch;
        nFaces          0;
        startFace       94;
    }
    outlet
    {
        type            patch;
        nFaces          0;
        startFace       94;
    }
    bottom
    {
        type            wall;
        inGroups        1(wall);
        nFaces          0;
        startFace       94;
    }
    top
    {
        type            symmetryPlane;
        inGroups        1(symmetryPlane);
        nFaces          20;
        startFace       94;
    }
    side1
    {
        type            symmetryPlane;
        inGroups        1(symmetryPlane);
        nFaces          0;
        startFace       114;
    }
    side2
    {
        type            symmetryPlane;
        inGroups        1(symmetryPlane);
        nFaces          0;
        startFace       114;
    }
    procBoundary88to24
    {
        type            processor;
        inGroups        1(processor);
        nFaces          26;
        startFace       114;
        matchTolerance  0.0001;
        transform       unknown;
        myProcNo        88;
        neighbProcNo    24;
    }
    procBoundary88to72
    {
        type            processor;
        inGroups        1(processor);
        nFaces          10;
        startFace       140;
        matchTolerance  0.0001;
        transform       unknown;
        myProcNo        88;
        neighbProcNo    72;
    }
    procBoundary88to87
    {
        type            processor;
        inGroups        1(processor);
        nFaces          8;
        startFace       150;
        matchTolerance  0.0001;
        transform       unknown;
        myProcNo        88;
        neighbProcNo    87;
    }
    procBoundary88to89
    {
        type            processor;
        inGroups        1(processor);
        nFaces          10;
        startFace       158;
        matchTolerance  0.0001;
        transform       unknown;
        myProcNo        88;
        neighbProcNo    89;
    }
    procBoundary88to104
    {
        type            processor;
        inGroups        1(processor);
        nFaces          14;
        startFace       168;
        matchTolerance  0.0001;
        transform       unknown;
        myProcNo        88;
        neighbProcNo    104;
    }
)

// ************************************************************************* //
