/*--------------------------------*- C++ -*----------------------------------*\
| =========                 |                                                 |
| \\      /  F ield         | OpenFOAM: The Open Source CFD Toolbox           |
|  \\    /   O peration     | Version:  2.4.0                                 |
|   \\  /    A nd           | Web:      www.OpenFOAM.org                      |
|    \\/     M anipulation  |                                                 |
\*---------------------------------------------------------------------------*/
FoamFile
{
    version     2.0;
    format      ascii;
    class       polyBoundaryMesh;
    location    "constant/polyMesh";
    object      boundary;
}
// * * * * * * * * * * * * * * * * * * * * * * * * * * * * * * * * * * * * * //

10
(
    inlet
    {
        type            patch;
        nFaces          0;
        startFace       490;
    }
    outlet
    {
        type            patch;
        nFaces          0;
        startFace       490;
    }
    bottom
    {
        type            wall;
        inGroups        1(wall);
        nFaces          40;
        startFace       490;
    }
    top
    {
        type            symmetryPlane;
        inGroups        1(symmetryPlane);
        nFaces          40;
        startFace       530;
    }
    side1
    {
        type            symmetryPlane;
        inGroups        1(symmetryPlane);
        nFaces          0;
        startFace       570;
    }
    side2
    {
        type            symmetryPlane;
        inGroups        1(symmetryPlane);
        nFaces          0;
        startFace       570;
    }
    procBoundary9to1
    {
        type            processor;
        inGroups        1(processor);
        nFaces          50;
        startFace       570;
        matchTolerance  0.0001;
        transform       unknown;
        myProcNo        9;
        neighbProcNo    1;
    }
    procBoundary9to8
    {
        type            processor;
        inGroups        1(processor);
        nFaces          20;
        startFace       620;
        matchTolerance  0.0001;
        transform       unknown;
        myProcNo        9;
        neighbProcNo    8;
    }
    procBoundary9to10
    {
        type            processor;
        inGroups        1(processor);
        nFaces          20;
        startFace       640;
        matchTolerance  0.0001;
        transform       unknown;
        myProcNo        9;
        neighbProcNo    10;
    }
    procBoundary9to17
    {
        type            processor;
        inGroups        1(processor);
        nFaces          50;
        startFace       660;
        matchTolerance  0.0001;
        transform       unknown;
        myProcNo        9;
        neighbProcNo    17;
    }
)

// ************************************************************************* //
