/*--------------------------------*- C++ -*----------------------------------*\
| =========                 |                                                 |
| \\      /  F ield         | OpenFOAM: The Open Source CFD Toolbox           |
|  \\    /   O peration     | Version:  2.4.0                                 |
|   \\  /    A nd           | Web:      www.OpenFOAM.org                      |
|    \\/     M anipulation  |                                                 |
\*---------------------------------------------------------------------------*/
FoamFile
{
    version     2.0;
    format      ascii;
    class       polyBoundaryMesh;
    location    "constant/polyMesh";
    object      boundary;
}
// * * * * * * * * * * * * * * * * * * * * * * * * * * * * * * * * * * * * * //

11
(
    inlet
    {
        type            patch;
        nFaces          0;
        startFace       130;
    }
    outlet
    {
        type            patch;
        nFaces          0;
        startFace       130;
    }
    bottom
    {
        type            wall;
        inGroups        1(wall);
        nFaces          20;
        startFace       130;
    }
    top
    {
        type            symmetryPlane;
        inGroups        1(symmetryPlane);
        nFaces          0;
        startFace       150;
    }
    side1
    {
        type            symmetryPlane;
        inGroups        1(symmetryPlane);
        nFaces          15;
        startFace       150;
    }
    side2
    {
        type            symmetryPlane;
        inGroups        1(symmetryPlane);
        nFaces          0;
        startFace       165;
    }
    procBoundary9to8
    {
        type            processor;
        inGroups        1(processor);
        nFaces          12;
        startFace       165;
        matchTolerance  0.0001;
        transform       unknown;
        myProcNo        9;
        neighbProcNo    8;
    }
    procBoundary9to10
    {
        type            processor;
        inGroups        1(processor);
        nFaces          11;
        startFace       177;
        matchTolerance  0.0001;
        transform       unknown;
        myProcNo        9;
        neighbProcNo    10;
    }
    procBoundary9to25
    {
        type            processor;
        inGroups        1(processor);
        nFaces          12;
        startFace       188;
        matchTolerance  0.0001;
        transform       unknown;
        myProcNo        9;
        neighbProcNo    25;
    }
    procBoundary9to73
    {
        type            processor;
        inGroups        1(processor);
        nFaces          22;
        startFace       200;
        matchTolerance  0.0001;
        transform       unknown;
        myProcNo        9;
        neighbProcNo    73;
    }
    procBoundary9to89
    {
        type            processor;
        inGroups        1(processor);
        nFaces          2;
        startFace       222;
        matchTolerance  0.0001;
        transform       unknown;
        myProcNo        9;
        neighbProcNo    89;
    }
)

// ************************************************************************* //
