/*--------------------------------*- C++ -*----------------------------------*\
| =========                 |                                                 |
| \\      /  F ield         | OpenFOAM: The Open Source CFD Toolbox           |
|  \\    /   O peration     | Version:  2.4.0                                 |
|   \\  /    A nd           | Web:      www.OpenFOAM.org                      |
|    \\/     M anipulation  |                                                 |
\*---------------------------------------------------------------------------*/
FoamFile
{
    version     2.0;
    format      ascii;
    class       polyBoundaryMesh;
    location    "constant/polyMesh";
    object      boundary;
}
// * * * * * * * * * * * * * * * * * * * * * * * * * * * * * * * * * * * * * //

11
(
    inlet
    {
        type            patch;
        nFaces          0;
        startFace       85;
    }
    outlet
    {
        type            patch;
        nFaces          0;
        startFace       85;
    }
    bottom
    {
        type            wall;
        inGroups        1(wall);
        nFaces          0;
        startFace       85;
    }
    top
    {
        type            symmetryPlane;
        inGroups        1(symmetryPlane);
        nFaces          20;
        startFace       85;
    }
    side1
    {
        type            symmetryPlane;
        inGroups        1(symmetryPlane);
        nFaces          0;
        startFace       105;
    }
    side2
    {
        type            symmetryPlane;
        inGroups        1(symmetryPlane);
        nFaces          0;
        startFace       105;
    }
    procBoundary102to38
    {
        type            processor;
        inGroups        1(processor);
        nFaces          23;
        startFace       105;
        matchTolerance  0.0001;
        transform       unknown;
        myProcNo        102;
        neighbProcNo    38;
    }
    procBoundary102to86
    {
        type            processor;
        inGroups        1(processor);
        nFaces          10;
        startFace       128;
        matchTolerance  0.0001;
        transform       unknown;
        myProcNo        102;
        neighbProcNo    86;
    }
    procBoundary102to101
    {
        type            processor;
        inGroups        1(processor);
        nFaces          8;
        startFace       138;
        matchTolerance  0.0001;
        transform       unknown;
        myProcNo        102;
        neighbProcNo    101;
    }
    procBoundary102to103
    {
        type            processor;
        inGroups        1(processor);
        nFaces          9;
        startFace       146;
        matchTolerance  0.0001;
        transform       unknown;
        myProcNo        102;
        neighbProcNo    103;
    }
    procBoundary102to118
    {
        type            processor;
        inGroups        1(processor);
        nFaces          12;
        startFace       155;
        matchTolerance  0.0001;
        transform       unknown;
        myProcNo        102;
        neighbProcNo    118;
    }
)

// ************************************************************************* //
