/*--------------------------------*- C++ -*----------------------------------*\
| =========                 |                                                 |
| \\      /  F ield         | OpenFOAM: The Open Source CFD Toolbox           |
|  \\    /   O peration     | Version:  2.4.0                                 |
|   \\  /    A nd           | Web:      www.OpenFOAM.org                      |
|    \\/     M anipulation  |                                                 |
\*---------------------------------------------------------------------------*/
FoamFile
{
    version     2.0;
    format      ascii;
    class       polyBoundaryMesh;
    location    "constant/polyMesh";
    object      boundary;
}
// * * * * * * * * * * * * * * * * * * * * * * * * * * * * * * * * * * * * * //

10
(
    inlet
    {
        type            patch;
        nFaces          0;
        startFace       82;
    }
    outlet
    {
        type            patch;
        nFaces          8;
        startFace       82;
    }
    bottom
    {
        type            wall;
        inGroups        1(wall);
        nFaces          20;
        startFace       90;
    }
    top
    {
        type            symmetryPlane;
        inGroups        1(symmetryPlane);
        nFaces          0;
        startFace       110;
    }
    side1
    {
        type            symmetryPlane;
        inGroups        1(symmetryPlane);
        nFaces          0;
        startFace       110;
    }
    side2
    {
        type            symmetryPlane;
        inGroups        1(symmetryPlane);
        nFaces          0;
        startFace       110;
    }
    procBoundary47to31
    {
        type            processor;
        inGroups        1(processor);
        nFaces          10;
        startFace       110;
        matchTolerance  0.0001;
        transform       unknown;
        myProcNo        47;
        neighbProcNo    31;
    }
    procBoundary47to46
    {
        type            processor;
        inGroups        1(processor);
        nFaces          8;
        startFace       120;
        matchTolerance  0.0001;
        transform       unknown;
        myProcNo        47;
        neighbProcNo    46;
    }
    procBoundary47to63
    {
        type            processor;
        inGroups        1(processor);
        nFaces          10;
        startFace       128;
        matchTolerance  0.0001;
        transform       unknown;
        myProcNo        47;
        neighbProcNo    63;
    }
    procBoundary47to111
    {
        type            processor;
        inGroups        1(processor);
        nFaces          20;
        startFace       138;
        matchTolerance  0.0001;
        transform       unknown;
        myProcNo        47;
        neighbProcNo    111;
    }
)

// ************************************************************************* //
