/*--------------------------------*- C++ -*----------------------------------*\
| =========                 |                                                 |
| \\      /  F ield         | OpenFOAM: The Open Source CFD Toolbox           |
|  \\    /   O peration     | Version:  2.4.0                                 |
|   \\  /    A nd           | Web:      www.OpenFOAM.org                      |
|    \\/     M anipulation  |                                                 |
\*---------------------------------------------------------------------------*/
FoamFile
{
    version     2.0;
    format      ascii;
    class       polyBoundaryMesh;
    location    "constant/polyMesh";
    object      boundary;
}
// * * * * * * * * * * * * * * * * * * * * * * * * * * * * * * * * * * * * * //

13
(
    inlet
    {
        type            patch;
        nFaces          0;
        startFace       127;
    }
    outlet
    {
        type            patch;
        nFaces          0;
        startFace       127;
    }
    bottom
    {
        type            wall;
        inGroups        1(wall);
        nFaces          0;
        startFace       127;
    }
    top
    {
        type            symmetryPlane;
        inGroups        1(symmetryPlane);
        nFaces          20;
        startFace       127;
    }
    side1
    {
        type            symmetryPlane;
        inGroups        1(symmetryPlane);
        nFaces          0;
        startFace       147;
    }
    side2
    {
        type            symmetryPlane;
        inGroups        1(symmetryPlane);
        nFaces          0;
        startFace       147;
    }
    procBoundary89to9
    {
        type            processor;
        inGroups        1(processor);
        nFaces          2;
        startFace       147;
        matchTolerance  0.0001;
        transform       unknown;
        myProcNo        89;
        neighbProcNo    9;
    }
    procBoundary89to24
    {
        type            processor;
        inGroups        1(processor);
        nFaces          1;
        startFace       149;
        matchTolerance  0.0001;
        transform       unknown;
        myProcNo        89;
        neighbProcNo    24;
    }
    procBoundary89to25
    {
        type            processor;
        inGroups        1(processor);
        nFaces          23;
        startFace       150;
        matchTolerance  0.0001;
        transform       unknown;
        myProcNo        89;
        neighbProcNo    25;
    }
    procBoundary89to73
    {
        type            processor;
        inGroups        1(processor);
        nFaces          11;
        startFace       173;
        matchTolerance  0.0001;
        transform       unknown;
        myProcNo        89;
        neighbProcNo    73;
    }
    procBoundary89to88
    {
        type            processor;
        inGroups        1(processor);
        nFaces          10;
        startFace       184;
        matchTolerance  0.0001;
        transform       unknown;
        myProcNo        89;
        neighbProcNo    88;
    }
    procBoundary89to90
    {
        type            processor;
        inGroups        1(processor);
        nFaces          12;
        startFace       194;
        matchTolerance  0.0001;
        transform       unknown;
        myProcNo        89;
        neighbProcNo    90;
    }
    procBoundary89to105
    {
        type            processor;
        inGroups        1(processor);
        nFaces          15;
        startFace       206;
        matchTolerance  0.0001;
        transform       unknown;
        myProcNo        89;
        neighbProcNo    105;
    }
)

// ************************************************************************* //
