/*--------------------------------*- C++ -*----------------------------------*\
| =========                 |                                                 |
| \\      /  F ield         | OpenFOAM: The Open Source CFD Toolbox           |
|  \\    /   O peration     | Version:  2.4.0                                 |
|   \\  /    A nd           | Web:      www.OpenFOAM.org                      |
|    \\/     M anipulation  |                                                 |
\*---------------------------------------------------------------------------*/
FoamFile
{
    version     2.0;
    format      ascii;
    class       polyBoundaryMesh;
    location    "constant/polyMesh";
    object      boundary;
}
// * * * * * * * * * * * * * * * * * * * * * * * * * * * * * * * * * * * * * //

10
(
    inlet
    {
        type            patch;
        nFaces          12;
        startFace       133;
    }
    outlet
    {
        type            patch;
        nFaces          0;
        startFace       145;
    }
    bottom
    {
        type            wall;
        inGroups        1(wall);
        nFaces          20;
        startFace       145;
    }
    top
    {
        type            symmetryPlane;
        inGroups        1(symmetryPlane);
        nFaces          0;
        startFace       165;
    }
    side1
    {
        type            symmetryPlane;
        inGroups        1(symmetryPlane);
        nFaces          0;
        startFace       165;
    }
    side2
    {
        type            symmetryPlane;
        inGroups        1(symmetryPlane);
        nFaces          0;
        startFace       165;
    }
    procBoundary16to0
    {
        type            processor;
        inGroups        1(processor);
        nFaces          15;
        startFace       165;
        matchTolerance  0.0001;
        transform       unknown;
        myProcNo        16;
        neighbProcNo    0;
    }
    procBoundary16to17
    {
        type            processor;
        inGroups        1(processor);
        nFaces          12;
        startFace       180;
        matchTolerance  0.0001;
        transform       unknown;
        myProcNo        16;
        neighbProcNo    17;
    }
    procBoundary16to32
    {
        type            processor;
        inGroups        1(processor);
        nFaces          15;
        startFace       192;
        matchTolerance  0.0001;
        transform       unknown;
        myProcNo        16;
        neighbProcNo    32;
    }
    procBoundary16to80
    {
        type            processor;
        inGroups        1(processor);
        nFaces          20;
        startFace       207;
        matchTolerance  0.0001;
        transform       unknown;
        myProcNo        16;
        neighbProcNo    80;
    }
)

// ************************************************************************* //
