/*--------------------------------*- C++ -*----------------------------------*\
| =========                 |                                                 |
| \\      /  F ield         | OpenFOAM: The Open Source CFD Toolbox           |
|  \\    /   O peration     | Version:  2.4.0                                 |
|   \\  /    A nd           | Web:      www.OpenFOAM.org                      |
|    \\/     M anipulation  |                                                 |
\*---------------------------------------------------------------------------*/
FoamFile
{
    version     2.0;
    format      ascii;
    class       polyBoundaryMesh;
    location    "constant/polyMesh";
    object      boundary;
}
// * * * * * * * * * * * * * * * * * * * * * * * * * * * * * * * * * * * * * //

11
(
    inlet
    {
        type            patch;
        nFaces          0;
        startFace       82;
    }
    outlet
    {
        type            patch;
        nFaces          0;
        startFace       82;
    }
    bottom
    {
        type            wall;
        inGroups        1(wall);
        nFaces          20;
        startFace       82;
    }
    top
    {
        type            symmetryPlane;
        inGroups        1(symmetryPlane);
        nFaces          0;
        startFace       102;
    }
    side1
    {
        type            symmetryPlane;
        inGroups        1(symmetryPlane);
        nFaces          0;
        startFace       102;
    }
    side2
    {
        type            symmetryPlane;
        inGroups        1(symmetryPlane);
        nFaces          0;
        startFace       102;
    }
    procBoundary44to28
    {
        type            processor;
        inGroups        1(processor);
        nFaces          10;
        startFace       102;
        matchTolerance  0.0001;
        transform       unknown;
        myProcNo        44;
        neighbProcNo    28;
    }
    procBoundary44to43
    {
        type            processor;
        inGroups        1(processor);
        nFaces          8;
        startFace       112;
        matchTolerance  0.0001;
        transform       unknown;
        myProcNo        44;
        neighbProcNo    43;
    }
    procBoundary44to45
    {
        type            processor;
        inGroups        1(processor);
        nFaces          8;
        startFace       120;
        matchTolerance  0.0001;
        transform       unknown;
        myProcNo        44;
        neighbProcNo    45;
    }
    procBoundary44to60
    {
        type            processor;
        inGroups        1(processor);
        nFaces          10;
        startFace       128;
        matchTolerance  0.0001;
        transform       unknown;
        myProcNo        44;
        neighbProcNo    60;
    }
    procBoundary44to108
    {
        type            processor;
        inGroups        1(processor);
        nFaces          20;
        startFace       138;
        matchTolerance  0.0001;
        transform       unknown;
        myProcNo        44;
        neighbProcNo    108;
    }
)

// ************************************************************************* //
