/*--------------------------------*- C++ -*----------------------------------*\
| =========                 |                                                 |
| \\      /  F ield         | OpenFOAM: The Open Source CFD Toolbox           |
|  \\    /   O peration     | Version:  2.4.0                                 |
|   \\  /    A nd           | Web:      www.OpenFOAM.org                      |
|    \\/     M anipulation  |                                                 |
\*---------------------------------------------------------------------------*/
FoamFile
{
    version     2.0;
    format      ascii;
    class       polyBoundaryMesh;
    location    "constant/polyMesh";
    object      boundary;
}
// * * * * * * * * * * * * * * * * * * * * * * * * * * * * * * * * * * * * * //

11
(
    inlet
    {
        type            patch;
        nFaces          0;
        startFace       94;
    }
    outlet
    {
        type            patch;
        nFaces          0;
        startFace       94;
    }
    bottom
    {
        type            wall;
        inGroups        1(wall);
        nFaces          20;
        startFace       94;
    }
    top
    {
        type            symmetryPlane;
        inGroups        1(symmetryPlane);
        nFaces          0;
        startFace       114;
    }
    side1
    {
        type            symmetryPlane;
        inGroups        1(symmetryPlane);
        nFaces          0;
        startFace       114;
    }
    side2
    {
        type            symmetryPlane;
        inGroups        1(symmetryPlane);
        nFaces          0;
        startFace       114;
    }
    procBoundary39to23
    {
        type            processor;
        inGroups        1(processor);
        nFaces          14;
        startFace       114;
        matchTolerance  0.0001;
        transform       unknown;
        myProcNo        39;
        neighbProcNo    23;
    }
    procBoundary39to38
    {
        type            processor;
        inGroups        1(processor);
        nFaces          10;
        startFace       128;
        matchTolerance  0.0001;
        transform       unknown;
        myProcNo        39;
        neighbProcNo    38;
    }
    procBoundary39to40
    {
        type            processor;
        inGroups        1(processor);
        nFaces          8;
        startFace       138;
        matchTolerance  0.0001;
        transform       unknown;
        myProcNo        39;
        neighbProcNo    40;
    }
    procBoundary39to55
    {
        type            processor;
        inGroups        1(processor);
        nFaces          10;
        startFace       146;
        matchTolerance  0.0001;
        transform       unknown;
        myProcNo        39;
        neighbProcNo    55;
    }
    procBoundary39to103
    {
        type            processor;
        inGroups        1(processor);
        nFaces          26;
        startFace       156;
        matchTolerance  0.0001;
        transform       unknown;
        myProcNo        39;
        neighbProcNo    103;
    }
)

// ************************************************************************* //
