/*--------------------------------*- C++ -*----------------------------------*\
| =========                 |                                                 |
| \\      /  F ield         | OpenFOAM: The Open Source CFD Toolbox           |
|  \\    /   O peration     | Version:  2.4.0                                 |
|   \\  /    A nd           | Web:      www.OpenFOAM.org                      |
|    \\/     M anipulation  |                                                 |
\*---------------------------------------------------------------------------*/
FoamFile
{
    version     2.0;
    format      ascii;
    class       polyBoundaryMesh;
    location    "constant/polyMesh";
    object      boundary;
}
// * * * * * * * * * * * * * * * * * * * * * * * * * * * * * * * * * * * * * //

9
(
    inlet
    {
        type            patch;
        nFaces          0;
        startFace       490;
    }
    outlet
    {
        type            patch;
        nFaces          20;
        startFace       490;
    }
    bottom
    {
        type            wall;
        inGroups        1(wall);
        nFaces          40;
        startFace       510;
    }
    top
    {
        type            symmetryPlane;
        inGroups        1(symmetryPlane);
        nFaces          40;
        startFace       550;
    }
    side1
    {
        type            symmetryPlane;
        inGroups        1(symmetryPlane);
        nFaces          0;
        startFace       590;
    }
    side2
    {
        type            symmetryPlane;
        inGroups        1(symmetryPlane);
        nFaces          0;
        startFace       590;
    }
    procBoundary15to7
    {
        type            processor;
        inGroups        1(processor);
        nFaces          50;
        startFace       590;
        matchTolerance  0.0001;
        transform       unknown;
        myProcNo        15;
        neighbProcNo    7;
    }
    procBoundary15to14
    {
        type            processor;
        inGroups        1(processor);
        nFaces          20;
        startFace       640;
        matchTolerance  0.0001;
        transform       unknown;
        myProcNo        15;
        neighbProcNo    14;
    }
    procBoundary15to23
    {
        type            processor;
        inGroups        1(processor);
        nFaces          50;
        startFace       660;
        matchTolerance  0.0001;
        transform       unknown;
        myProcNo        15;
        neighbProcNo    23;
    }
)

// ************************************************************************* //
