/*--------------------------------*- C++ -*----------------------------------*\
| =========                 |                                                 |
| \\      /  F ield         | OpenFOAM: The Open Source CFD Toolbox           |
|  \\    /   O peration     | Version:  2.4.0                                 |
|   \\  /    A nd           | Web:      http://www.openfoam.org               |
|    \\/     M anipulation  |                                                 |
\*---------------------------------------------------------------------------*/

FoamFile
{
    version     2.0;
    format      ascii;
    class       dictionary;
    object      blockMeshDict;
}
// * * * * * * * * * * * * * * * * * * * * * * * * * * * * * * * * * * * * * //

convertToMeters 1.0;

vertices
(
    (0      0         0)
    (0.05   0         0)
    (0.05   0.02      0)
    (0      0.02      0)
    (0      0      0.01)
    (0.05   0      0.01)
    (0.05   0.02   0.01)
    (0      0.02   0.01)
);

blocks
(
    hex (0 1 2 3 4 5 6 7) (50 10 10) simpleGrading (1 1 1)
);

edges
(
);

patches
(
    patch inlet
    (
        (0 3 7 4)
    )
    patch outlet
    (
        (1 2 6 5)
    )
    wall bottom
    (
        (0 1 2 3)
    )
    symmetryPlane top
    (
        (4 5 6 7)
    )
    symmetryPlane side1
    (
        (0 1 5 4)
    )
    symmetryPlane side2
    (
        (3 2 6 7)
    )
);

mergePatchPairs
(
);

// * * * * * * * * * * * * * * * * * * * * * * * * * * * * * * * * * * * * * //
