/*--------------------------------*- C++ -*----------------------------------*\
| =========                 |                                                 |
| \\      /  F ield         | OpenFOAM: The Open Source CFD Toolbox           |
|  \\    /   O peration     | Version:  2.4.0                                 |
|   \\  /    A nd           | Web:      www.OpenFOAM.org                      |
|    \\/     M anipulation  |                                                 |
\*---------------------------------------------------------------------------*/
FoamFile
{
    version     2.0;
    format      ascii;
    class       polyBoundaryMesh;
    location    "constant/polyMesh";
    object      boundary;
}
// * * * * * * * * * * * * * * * * * * * * * * * * * * * * * * * * * * * * * //

12
(
    inlet
    {
        type            patch;
        nFaces          0;
        startFace       133;
    }
    outlet
    {
        type            patch;
        nFaces          0;
        startFace       133;
    }
    bottom
    {
        type            wall;
        inGroups        1(wall);
        nFaces          0;
        startFace       133;
    }
    top
    {
        type            symmetryPlane;
        inGroups        1(symmetryPlane);
        nFaces          20;
        startFace       133;
    }
    side1
    {
        type            symmetryPlane;
        inGroups        1(symmetryPlane);
        nFaces          0;
        startFace       153;
    }
    side2
    {
        type            symmetryPlane;
        inGroups        1(symmetryPlane);
        nFaces          0;
        startFace       153;
    }
    procBoundary104to24
    {
        type            processor;
        inGroups        1(processor);
        nFaces          1;
        startFace       153;
        matchTolerance  0.0001;
        transform       unknown;
        myProcNo        104;
        neighbProcNo    24;
    }
    procBoundary104to40
    {
        type            processor;
        inGroups        1(processor);
        nFaces          20;
        startFace       154;
        matchTolerance  0.0001;
        transform       unknown;
        myProcNo        104;
        neighbProcNo    40;
    }
    procBoundary104to88
    {
        type            processor;
        inGroups        1(processor);
        nFaces          14;
        startFace       174;
        matchTolerance  0.0001;
        transform       unknown;
        myProcNo        104;
        neighbProcNo    88;
    }
    procBoundary104to103
    {
        type            processor;
        inGroups        1(processor);
        nFaces          12;
        startFace       188;
        matchTolerance  0.0001;
        transform       unknown;
        myProcNo        104;
        neighbProcNo    103;
    }
    procBoundary104to105
    {
        type            processor;
        inGroups        1(processor);
        nFaces          12;
        startFace       200;
        matchTolerance  0.0001;
        transform       unknown;
        myProcNo        104;
        neighbProcNo    105;
    }
    procBoundary104to120
    {
        type            processor;
        inGroups        1(processor);
        nFaces          15;
        startFace       212;
        matchTolerance  0.0001;
        transform       unknown;
        myProcNo        104;
        neighbProcNo    120;
    }
)

// ************************************************************************* //
