/*--------------------------------*- C++ -*----------------------------------*\
| =========                 |                                                 |
| \\      /  F ield         | OpenFOAM: The Open Source CFD Toolbox           |
|  \\    /   O peration     | Version:  2.4.0                                 |
|   \\  /    A nd           | Web:      www.OpenFOAM.org                      |
|    \\/     M anipulation  |                                                 |
\*---------------------------------------------------------------------------*/
FoamFile
{
    version     2.0;
    format      ascii;
    class       polyBoundaryMesh;
    location    "constant/polyMesh";
    object      boundary;
}
// * * * * * * * * * * * * * * * * * * * * * * * * * * * * * * * * * * * * * //

11
(
    inlet
    {
        type            patch;
        nFaces          0;
        startFace       133;
    }
    outlet
    {
        type            patch;
        nFaces          0;
        startFace       133;
    }
    bottom
    {
        type            wall;
        inGroups        1(wall);
        nFaces          0;
        startFace       133;
    }
    top
    {
        type            symmetryPlane;
        inGroups        1(symmetryPlane);
        nFaces          20;
        startFace       133;
    }
    side1
    {
        type            symmetryPlane;
        inGroups        1(symmetryPlane);
        nFaces          0;
        startFace       153;
    }
    side2
    {
        type            symmetryPlane;
        inGroups        1(symmetryPlane);
        nFaces          0;
        startFace       153;
    }
    procBoundary92to28
    {
        type            processor;
        inGroups        1(processor);
        nFaces          20;
        startFace       153;
        matchTolerance  0.0001;
        transform       unknown;
        myProcNo        92;
        neighbProcNo    28;
    }
    procBoundary92to76
    {
        type            processor;
        inGroups        1(processor);
        nFaces          15;
        startFace       173;
        matchTolerance  0.0001;
        transform       unknown;
        myProcNo        92;
        neighbProcNo    76;
    }
    procBoundary92to91
    {
        type            processor;
        inGroups        1(processor);
        nFaces          12;
        startFace       188;
        matchTolerance  0.0001;
        transform       unknown;
        myProcNo        92;
        neighbProcNo    91;
    }
    procBoundary92to93
    {
        type            processor;
        inGroups        1(processor);
        nFaces          12;
        startFace       200;
        matchTolerance  0.0001;
        transform       unknown;
        myProcNo        92;
        neighbProcNo    93;
    }
    procBoundary92to108
    {
        type            processor;
        inGroups        1(processor);
        nFaces          15;
        startFace       212;
        matchTolerance  0.0001;
        transform       unknown;
        myProcNo        92;
        neighbProcNo    108;
    }
)

// ************************************************************************* //
