/*--------------------------------*- C++ -*----------------------------------*\
| =========                 |                                                 |
| \\      /  F ield         | OpenFOAM: The Open Source CFD Toolbox           |
|  \\    /   O peration     | Version:  2.4.0                                 |
|   \\  /    A nd           | Web:      www.OpenFOAM.org                      |
|    \\/     M anipulation  |                                                 |
\*---------------------------------------------------------------------------*/
FoamFile
{
    version     2.0;
    format      ascii;
    class       polyBoundaryMesh;
    location    "constant/polyMesh";
    object      boundary;
}
// * * * * * * * * * * * * * * * * * * * * * * * * * * * * * * * * * * * * * //

11
(
    inlet
    {
        type            patch;
        nFaces          0;
        startFace       101;
    }
    outlet
    {
        type            patch;
        nFaces          0;
        startFace       101;
    }
    bottom
    {
        type            wall;
        inGroups        1(wall);
        nFaces          20;
        startFace       101;
    }
    top
    {
        type            symmetryPlane;
        inGroups        1(symmetryPlane);
        nFaces          0;
        startFace       121;
    }
    side1
    {
        type            symmetryPlane;
        inGroups        1(symmetryPlane);
        nFaces          15;
        startFace       121;
    }
    side2
    {
        type            symmetryPlane;
        inGroups        1(symmetryPlane);
        nFaces          0;
        startFace       136;
    }
    procBoundary10to9
    {
        type            processor;
        inGroups        1(processor);
        nFaces          11;
        startFace       136;
        matchTolerance  0.0001;
        transform       unknown;
        myProcNo        10;
        neighbProcNo    9;
    }
    procBoundary10to11
    {
        type            processor;
        inGroups        1(processor);
        nFaces          8;
        startFace       147;
        matchTolerance  0.0001;
        transform       unknown;
        myProcNo        10;
        neighbProcNo    11;
    }
    procBoundary10to26
    {
        type            processor;
        inGroups        1(processor);
        nFaces          10;
        startFace       155;
        matchTolerance  0.0001;
        transform       unknown;
        myProcNo        10;
        neighbProcNo    26;
    }
    procBoundary10to74
    {
        type            processor;
        inGroups        1(processor);
        nFaces          27;
        startFace       165;
        matchTolerance  0.0001;
        transform       unknown;
        myProcNo        10;
        neighbProcNo    74;
    }
    procBoundary10to75
    {
        type            processor;
        inGroups        1(processor);
        nFaces          1;
        startFace       192;
        matchTolerance  0.0001;
        transform       unknown;
        myProcNo        10;
        neighbProcNo    75;
    }
)

// ************************************************************************* //
