/*--------------------------------*- C++ -*----------------------------------*\
| =========                 |                                                 |
| \\      /  F ield         | OpenFOAM: The Open Source CFD Toolbox           |
|  \\    /   O peration     | Version:  2.4.0                                 |
|   \\  /    A nd           | Web:      www.OpenFOAM.org                      |
|    \\/     M anipulation  |                                                 |
\*---------------------------------------------------------------------------*/
FoamFile
{
    version     2.0;
    format      ascii;
    class       polyBoundaryMesh;
    location    "constant/polyMesh";
    object      boundary;
}
// * * * * * * * * * * * * * * * * * * * * * * * * * * * * * * * * * * * * * //

11
(
    inlet
    {
        type            patch;
        nFaces          0;
        startFace       133;
    }
    outlet
    {
        type            patch;
        nFaces          0;
        startFace       133;
    }
    bottom
    {
        type            wall;
        inGroups        1(wall);
        nFaces          20;
        startFace       133;
    }
    top
    {
        type            symmetryPlane;
        inGroups        1(symmetryPlane);
        nFaces          0;
        startFace       153;
    }
    side1
    {
        type            symmetryPlane;
        inGroups        1(symmetryPlane);
        nFaces          0;
        startFace       153;
    }
    side2
    {
        type            symmetryPlane;
        inGroups        1(symmetryPlane);
        nFaces          0;
        startFace       153;
    }
    procBoundary19to3
    {
        type            processor;
        inGroups        1(processor);
        nFaces          15;
        startFace       153;
        matchTolerance  0.0001;
        transform       unknown;
        myProcNo        19;
        neighbProcNo    3;
    }
    procBoundary19to18
    {
        type            processor;
        inGroups        1(processor);
        nFaces          12;
        startFace       168;
        matchTolerance  0.0001;
        transform       unknown;
        myProcNo        19;
        neighbProcNo    18;
    }
    procBoundary19to20
    {
        type            processor;
        inGroups        1(processor);
        nFaces          12;
        startFace       180;
        matchTolerance  0.0001;
        transform       unknown;
        myProcNo        19;
        neighbProcNo    20;
    }
    procBoundary19to35
    {
        type            processor;
        inGroups        1(processor);
        nFaces          15;
        startFace       192;
        matchTolerance  0.0001;
        transform       unknown;
        myProcNo        19;
        neighbProcNo    35;
    }
    procBoundary19to83
    {
        type            processor;
        inGroups        1(processor);
        nFaces          20;
        startFace       207;
        matchTolerance  0.0001;
        transform       unknown;
        myProcNo        19;
        neighbProcNo    83;
    }
)

// ************************************************************************* //
