/*--------------------------------*- C++ -*----------------------------------*\
| =========                 |                                                 |
| \\      /  F ield         | OpenFOAM: The Open Source CFD Toolbox           |
|  \\    /   O peration     | Version:  2.4.0                                 |
|   \\  /    A nd           | Web:      www.OpenFOAM.org                      |
|    \\/     M anipulation  |                                                 |
\*---------------------------------------------------------------------------*/
FoamFile
{
    version     2.0;
    format      ascii;
    class       polyBoundaryMesh;
    location    "constant/polyMesh";
    object      boundary;
}
// * * * * * * * * * * * * * * * * * * * * * * * * * * * * * * * * * * * * * //

10
(
    inlet
    {
        type            patch;
        nFaces          0;
        startFace       133;
    }
    outlet
    {
        type            patch;
        nFaces          12;
        startFace       133;
    }
    bottom
    {
        type            wall;
        inGroups        1(wall);
        nFaces          0;
        startFace       145;
    }
    top
    {
        type            symmetryPlane;
        inGroups        1(symmetryPlane);
        nFaces          20;
        startFace       145;
    }
    side1
    {
        type            symmetryPlane;
        inGroups        1(symmetryPlane);
        nFaces          0;
        startFace       165;
    }
    side2
    {
        type            symmetryPlane;
        inGroups        1(symmetryPlane);
        nFaces          0;
        startFace       165;
    }
    procBoundary95to31
    {
        type            processor;
        inGroups        1(processor);
        nFaces          20;
        startFace       165;
        matchTolerance  0.0001;
        transform       unknown;
        myProcNo        95;
        neighbProcNo    31;
    }
    procBoundary95to79
    {
        type            processor;
        inGroups        1(processor);
        nFaces          15;
        startFace       185;
        matchTolerance  0.0001;
        transform       unknown;
        myProcNo        95;
        neighbProcNo    79;
    }
    procBoundary95to94
    {
        type            processor;
        inGroups        1(processor);
        nFaces          12;
        startFace       200;
        matchTolerance  0.0001;
        transform       unknown;
        myProcNo        95;
        neighbProcNo    94;
    }
    procBoundary95to111
    {
        type            processor;
        inGroups        1(processor);
        nFaces          15;
        startFace       212;
        matchTolerance  0.0001;
        transform       unknown;
        myProcNo        95;
        neighbProcNo    111;
    }
)

// ************************************************************************* //
