/*--------------------------------*- C++ -*----------------------------------*\
| =========                 |                                                 |
| \\      /  F ield         | OpenFOAM: The Open Source CFD Toolbox           |
|  \\    /   O peration     | Version:  2.4.0                                 |
|   \\  /    A nd           | Web:      www.OpenFOAM.org                      |
|    \\/     M anipulation  |                                                 |
\*---------------------------------------------------------------------------*/
FoamFile
{
    version     2.0;
    format      ascii;
    class       polyBoundaryMesh;
    location    "constant/polyMesh";
    object      boundary;
}
// * * * * * * * * * * * * * * * * * * * * * * * * * * * * * * * * * * * * * //

10
(
    inlet
    {
        type            patch;
        nFaces          0;
        startFace       82;
    }
    outlet
    {
        type            patch;
        nFaces          0;
        startFace       82;
    }
    bottom
    {
        type            wall;
        inGroups        1(wall);
        nFaces          0;
        startFace       82;
    }
    top
    {
        type            symmetryPlane;
        inGroups        1(symmetryPlane);
        nFaces          20;
        startFace       82;
    }
    side1
    {
        type            symmetryPlane;
        inGroups        1(symmetryPlane);
        nFaces          10;
        startFace       102;
    }
    side2
    {
        type            symmetryPlane;
        inGroups        1(symmetryPlane);
        nFaces          0;
        startFace       112;
    }
    procBoundary69to5
    {
        type            processor;
        inGroups        1(processor);
        nFaces          20;
        startFace       112;
        matchTolerance  0.0001;
        transform       unknown;
        myProcNo        69;
        neighbProcNo    5;
    }
    procBoundary69to68
    {
        type            processor;
        inGroups        1(processor);
        nFaces          8;
        startFace       132;
        matchTolerance  0.0001;
        transform       unknown;
        myProcNo        69;
        neighbProcNo    68;
    }
    procBoundary69to70
    {
        type            processor;
        inGroups        1(processor);
        nFaces          8;
        startFace       140;
        matchTolerance  0.0001;
        transform       unknown;
        myProcNo        69;
        neighbProcNo    70;
    }
    procBoundary69to85
    {
        type            processor;
        inGroups        1(processor);
        nFaces          10;
        startFace       148;
        matchTolerance  0.0001;
        transform       unknown;
        myProcNo        69;
        neighbProcNo    85;
    }
)

// ************************************************************************* //
